sad/pglib_opf_case9241_pegase__sad.m
%%%%%%%%%%%%%%%%%%%%%%%%%%%%%%%%%%%%%%%%%%%%%%%%%%%%%%%%%%%%%%%%%%%%%%%%%%%
%%%%                                                                  %%%%%
%%%%    IEEE PES Power Grid Library - Optimal Power Flow - v20.04     %%%%%
%%%%          (https://github.com/power-grid-lib/pglib-opf)           %%%%%
%%%%             Benchmark Group - Small Angle Difference             %%%%%
%%%%                         12 - July - 2020                         %%%%%
%%%%                                                                  %%%%%
%%%%%%%%%%%%%%%%%%%%%%%%%%%%%%%%%%%%%%%%%%%%%%%%%%%%%%%%%%%%%%%%%%%%%%%%%%%
function mpc = pglib_opf_case9241_pegase__sad
mpc.version = '2';
mpc.baseMVA = 100.0;

%% bus data
%	bus_i	type	Pd	Qd	Gs	Bs	area	Vm	Va	baseKV	zone	Vmax	Vmin
mpc.bus = [
	1	 1	 378.4	 98.5	 0.0	 16.61	 0	    1.00000	    0.00000	 220.0	 6	    1.10000	    0.90000;
	2	 2	 0.0	 0.0	 0.0	 0.0	 0	    1.00000	    0.00000	 154.0	 1	    1.10000	    0.90000;
	3	 1	 151.0	 48.8	 0.0	 4.69	 0	    1.00000	    0.00000	 220.0	 5	    1.10000	    0.90000;
	4	 1	 171.41	 23.4	 0.0	 2.1	 0	    1.00000	    0.00000	 220.0	 5	    1.10000	    0.90000;
	5	 1	 45.95	 14.0	 0.0	 13.34	 0	    1.00000	    0.00000	 220.0	 6	    1.10000	    0.90000;
	6	 2	 0.0	 0.0	 0.0	 0.0	 0	    1.00000	    0.00000	 380.0	 6	    1.10000	    0.90000;
	7	 1	 31.03	 10.3	 0.0	 0.65	 0	    1.00000	    0.00000	 110.0	 21	    1.10000	    0.90000;
	8	 2	 0.0	 0.0	 0.0	 0.0	 0	    1.00000	    0.00000	 154.0	 1	    1.10000	    0.90000;
	9	 1	 14.3	 2.0	 0.0	 1.91	 0	    1.00000	    0.00000	 154.0	 1	    1.10000	    0.90000;
	10	 1	 134.0	 24.7	 0.0	 12.44	 0	    1.00000	    0.00000	 220.0	 5	    1.10000	    0.90000;
	11	 1	 0.0	 0.0	 0.0	 0.0	 0	    1.00000	    0.00000	 150.0	 9	    1.10000	    0.90000;
	12	 1	 -6.11	 2.0	 0.0	 0.47	 0	    1.00000	    0.00000	 150.0	 9	    1.10000	    0.90000;
	13	 1	 -22.74	 -8.32	 0.0	 6.5	 0	    1.00000	    0.00000	 220.0	 6	    1.10000	    0.90000;
	14	 1	 13.5	 14.8	 0.0	 132.435168	 0	    1.00000	    0.00000	 380.0	 9	    1.30000	    0.70000;
	15	 1	 59.67	 26.7	 0.0	 12.84	 0	    1.00000	    0.00000	 220.0	 4	    1.10000	    0.90000;
	16	 1	 30.6	 4.3	 0.0	 5.15	 0	    1.00000	    0.00000	 154.0	 1	    1.10000	    0.90000;
	17	 1	 67.68	 12.1	 0.0	 2.18	 0	    1.00000	    0.00000	 220.0	 3	    1.10000	    0.90000;
	18	 2	 0.0	 0.0	 0.0	 0.0	 0	    1.00000	    0.00000	 380.0	 3	    1.10000	    0.90000;
	19	 1	 25.33	 7.5	 0.0	 2.39	 0	    1.00000	    0.00000	 110.0	 12	    1.10000	    0.90000;
	20	 1	 1.4	 0.2	 0.0	 4.93	 0	    1.00000	    0.00000	 154.0	 1	    1.10000	    0.90000;
	21	 1	 161.2	 39.3	 0.0	 30.71	 0	    1.00000	    0.00000	 220.0	 5	    1.10000	    0.90000;
	22	 1	 0.0	 -0.0	 0.0	 0.85	 0	    1.00000	    0.00000	 220.0	 5	    1.10000	    0.90000;
	23	 1	 19.62	 7.1	 0.0	 1.15	 0	    1.00000	    0.00000	 110.0	 19	    1.10000	    0.90000;
	24	 1	 17.22	 5.7	 0.0	 1.22	 0	    1.00000	    0.00000	 110.0	 21	    1.10000	    0.90000;
	25	 2	 0.0	 0.0	 0.0	 0.0	 0	    1.00000	    0.00000	 220.0	 3	    1.10000	    0.90000;
	26	 1	 167.3	 54.8	 0.0	 110.54	 0	    1.00000	    0.00000	 380.0	 5	    1.10000	    0.90000;
	27	 1	 -0.0	 -0.0	 0.0	 14.82	 0	    1.00000	    0.00000	 380.0	 13	    1.10000	    0.90000;
	28	 1	 0.0	 0.0	 0.0	 0.0	 0	    1.00000	    0.00000	 150.0	 9	    1.10000	    0.90000;
	29	 1	 152.9	 49.4	 0.0	 27.65	 0	    1.00000	    0.00000	 380.0	 5	    1.10000	    0.90000;
	30	 1	 -0.0	 0.0	 0.0	 0.56	 0	    1.00000	    0.00000	 150.0	 9	    1.10000	    0.90000;
	31	 1	 69.68	 43.2	 0.0	 6.3	 0	    1.00000	    0.00000	 150.0	 9	    1.30000	    0.70000;
	32	 2	 0.0	 0.0	 0.0	 0.0	 0	    1.00000	    0.00000	 220.0	 4	    1.10000	    0.90000;
	33	 2	 0.0	 0.0	 0.0	 0.0	 0	    1.00000	    0.00000	 220.0	 4	    1.10000	    0.90000;
	34	 1	 13.52	 4.9	 0.0	 1.8	 0	    1.00000	    0.00000	 110.0	 19	    1.10000	    0.90000;
	35	 1	 10.51	 3.5	 0.0	 0.31	 0	    1.00000	    0.00000	 110.0	 12	    1.10000	    0.90000;
	36	 1	 -0.0	 -0.0	 0.12	 15.34	 0	    1.00000	    0.00000	 220.0	 19	    1.10000	    0.90000;
	37	 1	 9.21	 2.6	 0.0	 2.0	 0	    1.00000	    0.00000	 110.0	 18	    1.10000	    0.90000;
	38	 1	 42.75	 12.8	 0.0	 13.3	 0	    1.00000	    0.00000	 220.0	 8	    1.10000	    0.90000;
	39	 2	 0.0	 0.0	 0.0	 0.0	 0	    1.00000	    0.00000	 150.0	 10	    1.10000	    0.90000;
	40	 1	 16.02	 4.54	 0.0	 0.1	 0	    1.00000	    0.00000	 110.0	 23	    1.10000	    0.90000;
	41	 1	 27.9	 4.0	 0.0	 4.23	 0	    1.00000	    0.00000	 154.0	 1	    1.10000	    0.90000;
	42	 1	 20.82	 7.9	 0.0	 26.89	 0	    1.00000	    0.00000	 380.0	 4	    1.10000	    0.90000;
	43	 1	 12.6	 1.8	 0.0	 2.03	 0	    1.00000	    0.00000	 154.0	 1	    1.10000	    0.90000;
	44	 1	 -0.0	 0.0	 0.0	 7.27	 0	    1.00000	    0.00000	 220.0	 5	    1.10000	    0.90000;
	45	 1	 10.11	 3.7	 0.0	 0.81	 0	    1.00000	    0.00000	 110.0	 19	    1.10000	    0.90000;
	46	 1	 10.01	 2.7	 0.0	 1.14	 0	    1.00000	    0.00000	 110.0	 18	    1.10000	    0.90000;
	47	 1	 6.31	 0.0	 0.0	 0.67	 0	    1.00000	    0.00000	 110.0	 18	    1.10000	    0.90000;
	48	 1	 2.9	 0.9	 0.0	 0.6	 0	    1.00000	    0.00000	 110.0	 15	    1.10000	    0.90000;
	49	 2	 0.0	 0.0	 0.0	 0.0	 0	    1.00000	    0.00000	 220.0	 6	    1.10000	    0.90000;
	50	 1	 48.8	 6.9	 0.0	 8.71	 0	    1.00000	    0.00000	 154.0	 1	    1.10000	    0.90000;
	51	 2	 0.0	 0.0	 0.0	 0.0	 0	    1.00000	    0.00000	 220.0	 4	    1.10000	    0.90000;
	52	 1	 127.6	 31.8	 0.0	 20.51	 0	    1.00000	    0.00000	 150.0	 8	    1.10000	    0.90000;
	53	 1	 48.65	 16.1	 0.0	 7.14	 0	    1.00000	    0.00000	 220.0	 5	    1.10000	    0.90000;
	54	 1	 110.5	 -26.8	 0.0	 16.37	 0	    1.00000	    0.00000	 220.0	 6	    1.10000	    0.90000;
	55	 1	 0.0	 -0.0	 0.0	 1.23	 0	    1.00000	    0.00000	 220.0	 3	    1.10000	    0.90000;
	56	 1	 140.0	 79.7	 0.0	 6.5	 0	    1.00000	    0.00000	 220.0	 3	    1.10000	    0.90000;
	57	 1	 21.6	 3.0	 0.0	 3.54	 0	    1.00000	    0.00000	 154.0	 1	    1.10000	    0.90000;
	58	 1	 0.0	 0.0	 0.0	 2.31	 0	    1.00000	    0.00000	 380.0	 5	    1.10000	    0.90000;
	59	 1	 119.2	 20.7	 0.0	 3.31	 0	    1.00000	    0.00000	 220.0	 5	    1.10000	    0.90000;
	60	 1	 0.24	 -1.66	 0.0	 0.65	 0	    1.00000	    0.00000	 110.0	 18	    1.10000	    0.90000;
	61	 1	 -0.0	 0.0	 0.0	 58.57	 0	    1.00000	    0.00000	 380.0	 3	    1.10000	    0.90000;
	62	 1	 -0.0	 0.0	 0.0	 1.34	 0	    1.00000	    0.00000	 110.0	 18	    1.10000	    0.90000;
	63	 1	 187.9	 110.2	 0.0	 21.25	 0	    1.00000	    0.00000	 380.0	 3	    1.10000	    0.90000;
	64	 1	 14.92	 5.5	 0.0	 1.31	 0	    1.00000	    0.00000	 110.0	 15	    1.10000	    0.90000;
	65	 1	 -18.52	 6.1	 0.0	 0.79	 0	    1.00000	    0.00000	 150.0	 9	    1.10000	    0.90000;
	66	 1	 4.61	 1.7	 0.0	 2.32	 0	    1.00000	    0.00000	 110.0	 19	    1.10000	    0.90000;
	67	 1	 0.0	 0.0	 0.099501	 82.133595	 0	    1.00000	    0.00000	 380.0	 18	    1.10000	    0.90000;
	68	 1	 10.81	 5.1	 0.0	 1.09	 0	    1.00000	    0.00000	 110.0	 18	    1.10000	    0.90000;
	69	 1	 62.87	 20.5	 0.0	 1.15	 0	    1.00000	    0.00000	 150.0	 8	    1.10000	    0.90000;
	70	 1	 0.0	 0.0	 0.0	 2.64	 0	    1.00000	    0.00000	 154.0	 1	    1.10000	    0.90000;
	71	 1	 126.3	 42.4	 0.0	 55.24	 0	    1.00000	    0.00000	 150.0	 8	    1.10000	    0.90000;
	72	 1	 6.91	 -4.6	 0.0	 5.75	 0	    1.00000	    0.00000	 220.0	 4	    1.10000	    0.90000;
	73	 1	 15.72	 5.2	 0.0	 0.11	 0	    1.00000	    0.00000	 110.0	 12	    1.10000	    0.90000;
	74	 1	 0.0	 0.0	 0.0	 0.0	 0	    1.00000	    0.00000	 150.0	 9	    1.10000	    0.90000;
	75	 1	 38.74	 6.1	 0.0	 1.17	 0	    1.00000	    0.00000	 220.0	 4	    1.10000	    0.90000;
	76	 1	 22.13	 10.7	 0.0	 14.21	 0	    1.00000	    0.00000	 220.0	 8	    1.10000	    0.90000;
	77	 1	 -0.0	 -0.0	 0.0	 0.73	 0	    1.00000	    0.00000	 220.0	 4	    1.10000	    0.90000;
	78	 1	 0.0	 -0.0	 0.0	 0.83	 0	    1.00000	    0.00000	 110.0	 18	    1.10000	    0.90000;
	79	 1	 138.8	 136.7	 0.0	 8.76	 0	    1.00000	    0.00000	 380.0	 3	    1.10000	    0.90000;
	80	 2	 0.0	 0.0	 0.0	 0.0	 0	    1.00000	    0.00000	 220.0	 23	    1.10000	    0.90000;
	81	 1	 67.76	 19.18	 0.0	 1.47	 0	    1.00000	    0.00000	 150.0	 1	    1.10000	    0.90000;
	82	 1	 22.02	 5.1	 0.0	 0.69	 0	    1.00000	    0.00000	 110.0	 1	    1.10000	    0.90000;
	83	 1	 0.0	 0.0	 0.0	 6.62	 0	    1.00000	    0.00000	 220.0	 3	    1.10000	    0.90000;
	84	 1	 1.0	 0.3	 0.0	 0.19	 0	    1.00000	    0.00000	 110.0	 19	    1.10000	    0.90000;
	85	 1	 20.9	 3.0	 0.0	 5.74	 0	    1.00000	    0.00000	 154.0	 1	    1.10000	    0.90000;
	86	 1	 0.0	 0.0	 0.0	 0.12	 0	    1.00000	    0.00000	 150.0	 9	    1.10000	    0.90000;
	87	 1	 21.52	 5.1	 0.0	 0.5	 0	    1.00000	    0.00000	 110.0	 18	    1.10000	    0.90000;
	88	 1	 71.98	 28.8	 0.0	 11.0	 0	    1.00000	    0.00000	 220.0	 6	    1.10000	    0.90000;
	89	 1	 0.0	 0.0	 0.199111	 4.530599	 0	    1.00000	    0.00000	 380.0	 2	    1.10000	    0.90000;
	90	 1	 363.25	 115.39	 0.0	 3.95	 0	    1.00000	    0.00000	 220.0	 5	    1.10000	    0.90000;
	91	 1	 -0.0	 0.0	 0.0	 0.02	 0	    1.00000	    0.00000	 150.0	 8	    1.10000	    0.90000;
	92	 1	 192.9	 73.3	 0.0	 20.75	 0	    1.00000	    0.00000	 380.0	 3	    1.10000	    0.90000;
	93	 1	 17.52	 6.3	 0.0	 0.26	 0	    1.00000	    0.00000	 110.0	 19	    1.10000	    0.90000;
	94	 1	 33.14	 12.0	 0.0	 0.65	 0	    1.00000	    0.00000	 110.0	 19	    1.10000	    0.90000;
	95	 1	 40.45	 25.0	 0.0	 9.82	 0	    1.00000	    0.00000	 150.0	 9	    1.10000	    0.90000;
	96	 1	 193.17	 53.37	 0.0	 4.58	 0	    1.00000	    0.00000	 220.0	 5	    1.10000	    0.90000;
	97	 1	 0.0	 0.0	 0.0	 9.38	 0	    1.00000	    0.00000	 380.0	 1	    1.10000	    0.90000;
	98	 1	 90.7	 25.5	 0.0	 3.11	 0	    1.00000	    0.00000	 220.0	 3	    1.10000	    0.90000;
	99	 1	 176.3	 -58.9	 0.0	 24.77	 0	    1.00000	    0.00000	 380.0	 6	    1.10000	    0.90000;
	100	 1	 35.94	 22.3	 0.0	 0.0	 0	    1.00000	    0.00000	 150.0	 9	    1.10000	    0.90000;
	101	 1	 -0.0	 0.0	 0.0	 0.29	 0	    1.00000	    0.00000	 150.0	 9	    1.10000	    0.90000;
	102	 1	 0.0	 -0.0	 0.0	 3.77	 0	    1.00000	    0.00000	 220.0	 6	    1.10000	    0.90000;
	103	 1	 65.07	 40.3	 0.0	 5.43	 0	    1.00000	    0.00000	 150.0	 9	    1.10000	    0.90000;
	104	 1	 51.36	 -8.8	 0.0	 2.15	 0	    1.00000	    0.00000	 220.0	 6	    1.10000	    0.90000;
	105	 1	 -0.0	 -0.0	 0.0	 82.55	 0	    1.00000	    0.00000	 380.0	 6	    1.10000	    0.90000;
	106	 1	 0.0	 -0.0	 0.0	 31.19	 0	    1.00000	    0.00000	 380.0	 23	    1.30000	    0.70000;
	107	 2	 0.0	 0.0	 0.0	 0.0	 0	    1.00000	    0.00000	 380.0	 3	    1.30000	    0.70000;
	108	 1	 3.8	 1.3	 0.0	 0.4	 0	    1.00000	    0.00000	 110.0	 18	    1.10000	    0.90000;
	109	 1	 137.0	 19.5	 0.0	 4.9	 0	    1.00000	    0.00000	 154.0	 1	    1.10000	    0.90000;
	110	 1	 0.0	 0.0	 0.0	 0.0	 0	    1.00000	    0.00000	 150.0	 9	    1.10000	    0.90000;
	111	 1	 61.07	 36.0	 0.0	 3.09	 0	    1.00000	    0.00000	 220.0	 11	    1.10000	    0.90000;
	112	 1	 0.0	 0.0	 0.0	 3.24	 0	    1.00000	    0.00000	 220.0	 3	    1.10000	    0.90000;
	113	 1	 -0.0	 -0.0	 0.0	 6.532711	 0	    1.00000	    0.00000	 380.0	 5	    1.10000	    0.90000;
	114	 1	 55.7	 7.9	 0.0	 4.21	 0	    1.00000	    0.00000	 154.0	 1	    1.10000	    0.90000;
	115	 1	 0.0	 -0.0	 0.0	 4.21	 0	    1.00000	    0.00000	 220.0	 5	    1.10000	    0.90000;
	116	 1	 1.8	 0.7	 0.0	 0.3	 0	    1.00000	    0.00000	 110.0	 19	    1.10000	    0.90000;
	117	 1	 40.04	 16.0	 0.0	 0.52	 0	    1.00000	    0.00000	 110.0	 18	    1.10000	    0.90000;
	118	 1	 -0.0	 0.0	 0.0	 36.562834	 0	    1.00000	    0.00000	 380.0	 5	    1.10000	    0.90000;
	119	 1	 0.0	 0.0	 0.0	 0.09	 0	    1.00000	    0.00000	 150.0	 9	    1.10000	    0.90000;
	120	 1	 140.6	 20.1	 0.0	 13.81	 0	    1.00000	    0.00000	 154.0	 1	    1.10000	    0.90000;
	121	 1	 45.15	 14.1	 0.0	 0.19	 0	    1.00000	    0.00000	 110.0	 15	    1.10000	    0.90000;
	122	 1	 -0.0	 0.0	 0.0	 5.75	 0	    1.00000	    0.00000	 220.0	 3	    1.10000	    0.90000;
	123	 2	 0.0	 0.0	 0.0	 0.0	 0	    1.00000	    0.00000	 220.0	 11	    1.10000	    0.90000;
	124	 2	 0.0	 0.0	 0.0	 0.0	 0	    1.00000	    0.00000	 220.0	 5	    1.10000	    0.90000;
	125	 1	 3.42	 2.68	 0.0	 1.46	 0	    1.00000	    0.00000	 110.0	 18	    1.10000	    0.90000;
	126	 1	 0.0	 -0.0	 0.0	 2.64	 0	    1.00000	    0.00000	 154.0	 1	    1.10000	    0.90000;
	127	 1	 -0.0	 -0.0	 0.0	 4.3	 0	    1.00000	    0.00000	 220.0	 6	    1.10000	    0.90000;
	128	 1	 23.73	 12.7	 0.0	 0.52	 0	    1.00000	    0.00000	 220.0	 5	    1.10000	    0.90000;
	129	 1	 121.9	 7.4	 0.0	 1.34	 0	    1.00000	    0.00000	 220.0	 3	    1.10000	    0.90000;
	130	 1	 -0.0	 0.0	 0.135375	 47.750675	 0	    1.00000	    0.00000	 380.0	 10	    1.10000	    0.90000;
	131	 1	 47.35	 16.4	 0.0	 4.08	 0	    1.00000	    0.00000	 110.0	 22	    1.10000	    0.90000;
	132	 1	 0.0	 -0.0	 0.0	 21.39	 0	    1.00000	    0.00000	 380.0	 1	    1.10000	    0.90000;
	133	 1	 38.14	 12.5	 0.0	 6.28	 0	    1.00000	    0.00000	 150.0	 8	    1.10000	    0.90000;
	134	 1	 54.2	 7.8	 0.0	 94.9	 0	    1.00000	    0.00000	 400.0	 1	    1.10000	    0.90000;
	135	 1	 130.6	 84.9	 0.0	 4.22	 0	    1.00000	    0.00000	 220.0	 7	    1.10000	    0.90000;
	136	 1	 7.91	 2.6	 0.0	 0.74	 0	    1.00000	    0.00000	 110.0	 12	    1.10000	    0.90000;
	137	 1	 42.1	 74.61	 0.0	 37.58	 0	    1.00000	    0.00000	 150.0	 1	    1.10000	    0.90000;
	138	 1	 -75.38	 7.8	 0.0	 29.9	 0	    1.00000	    0.00000	 380.0	 10	    1.10000	    0.90000;
	139	 1	 -0.0	 -0.0	 0.0	 36.92	 0	    1.00000	    0.00000	 380.0	 8	    1.10000	    0.90000;
	140	 1	 0.0	 0.0	 0.0	 4.14	 0	    1.00000	    0.00000	 220.0	 8	    1.10000	    0.90000;
	141	 2	 0.0	 0.0	 0.0	 0.0	 0	    1.00000	    0.00000	 220.0	 13	    1.10000	    0.90000;
	142	 2	 0.0	 0.0	 0.0	 0.0	 0	    1.00000	    0.00000	 220.0	 6	    1.10000	    0.90000;
	143	 1	 0.0	 0.0	 0.0	 0.0	 0	    1.00000	    0.00000	 150.0	 8	    1.10000	    0.90000;
	144	 1	 0.0	 0.0	 0.0	 98.53	 0	    1.00000	    0.00000	 380.0	 14	    1.10000	    0.90000;
	145	 1	 38.34	 5.6	 0.0	 7.64	 0	    1.00000	    0.00000	 220.0	 5	    1.10000	    0.90000;
	146	 1	 269.6	 65.7	 0.0	 0.0	 0	    1.00000	    0.00000	 120.0	 20	    1.30000	    0.70000;
	147	 2	 0.0	 0.0	 0.0	 0.0	 0	    1.00000	    0.00000	 220.0	 7	    1.10000	    0.90000;
	148	 1	 32.34	 12.0	 0.0	 6.1	 0	    1.00000	    0.00000	 220.0	 5	    1.10000	    0.90000;
	149	 1	 100.1	 45.1	 0.0	 1.11	 0	    1.00000	    0.00000	 380.0	 6	    1.10000	    0.90000;
	150	 2	 0.0	 0.0	 0.0	 0.0	 0	    1.00000	    0.00000	 220.0	 5	    1.10000	    0.90000;
	151	 2	 0.0	 0.0	 0.0	 0.0	 0	    1.00000	    0.00000	 154.0	 1	    1.10000	    0.90000;
	152	 1	 7.0	 1.0	 0.0	 4.69	 0	    1.00000	    0.00000	 154.0	 1	    1.10000	    0.90000;
	153	 1	 -0.0	 0.0	 0.0	 0.56	 0	    1.00000	    0.00000	 150.0	 7	    1.10000	    0.90000;
	154	 1	 0.0	 0.0	 0.0	 1.29	 0	    1.00000	    0.00000	 110.0	 12	    1.10000	    0.90000;
	155	 1	 -0.0	 -0.0	 0.0	 1.7	 0	    1.00000	    0.00000	 110.0	 21	    1.10000	    0.90000;
	156	 1	 40.34	 25.0	 0.0	 1.14	 0	    1.00000	    0.00000	 150.0	 9	    1.10000	    0.90000;
	157	 1	 9.21	 3.3	 0.0	 1.2	 0	    1.00000	    0.00000	 110.0	 19	    1.10000	    0.90000;
	158	 1	 166.0	 60.3	 0.0	 0.57	 0	    1.00000	    0.00000	 220.0	 3	    1.10000	    0.90000;
	159	 1	 0.0	 -0.0	 0.0	 0.1	 0	    1.00000	    0.00000	 150.0	 9	    1.10000	    0.90000;
	160	 1	 79.4	 11.3	 0.0	 4.92	 0	    1.00000	    0.00000	 154.0	 1	    1.10000	    0.90000;
	161	 1	 -0.0	 -0.0	 0.0	 0.16	 0	    1.00000	    0.00000	 150.0	 9	    1.10000	    0.90000;
	162	 1	 0.0	 0.0	 0.0	 66.65	 0	    1.00000	    0.00000	 380.0	 6	    1.10000	    0.90000;
	163	 1	 147.76	 32.73	 0.0	 8.34	 0	    1.00000	    0.00000	 220.0	 5	    1.10000	    0.90000;
	164	 1	 0.0	 -0.0	 0.0	 5.17	 0	    1.00000	    0.00000	 150.0	 8	    1.10000	    0.90000;
	165	 1	 26.8	 -3.7	 0.0	 51.261678	 0	    1.00000	    0.00000	 380.0	 9	    1.10000	    0.90000;
	166	 2	 0.0	 0.0	 0.0	 0.0	 0	    1.00000	    0.00000	 220.0	 3	    1.10000	    0.90000;
	167	 1	 257.5	 131.1	 0.0	 1.08	 0	    1.00000	    0.00000	 220.0	 3	    1.10000	    0.90000;
	168	 1	 16.7	 2.4	 0.0	 6.09	 0	    1.00000	    0.00000	 154.0	 1	    1.10000	    0.90000;
	169	 1	 0.0	 0.0	 0.0	 1.91	 0	    1.00000	    0.00000	 150.0	 9	    1.10000	    0.90000;
	170	 1	 -0.0	 -0.0	 0.0	 2.35	 0	    1.00000	    0.00000	 220.0	 1	    1.10000	    0.90000;
	171	 1	 100.8	 13.2	 0.0	 5.24	 0	    1.00000	    0.00000	 220.0	 5	    1.10000	    0.90000;
	172	 1	 111.7	 10.96	 0.0	 4.22	 0	    1.00000	    0.00000	 220.0	 4	    1.10000	    0.90000;
	173	 1	 90.38	 -5.05	 0.0	 8.49	 0	    1.00000	    0.00000	 220.0	 13	    1.10000	    0.90000;
	174	 1	 370.5	 -17.0	 0.0	 9.91	 0	    1.00000	    0.00000	 220.0	 5	    1.10000	    0.90000;
	175	 1	 9.91	 3.2	 0.0	 0.67	 0	    1.00000	    0.00000	 110.0	 12	    1.10000	    0.90000;
	176	 1	 -0.69	 -5.46	 0.0	 5.07	 0	    1.00000	    0.00000	 150.0	 9	    1.10000	    0.90000;
	177	 1	 94.9	 36.2	 0.0	 16.46	 0	    1.00000	    0.00000	 220.0	 10	    1.10000	    0.90000;
	178	 1	 81.09	 48.0	 0.0	 0.03	 0	    1.00000	    0.00000	 150.0	 9	    1.10000	    0.90000;
	179	 2	 0.0	 0.0	 0.0	 0.0	 0	    1.00000	    0.00000	 380.0	 4	    1.10000	    0.90000;
	180	 1	 0.0	 0.0	 0.0	 0.54	 0	    1.00000	    0.00000	 110.0	 21	    1.10000	    0.90000;
	181	 1	 54.96	 16.9	 0.0	 3.37	 0	    1.00000	    0.00000	 110.0	 22	    1.10000	    0.90000;
	182	 1	 19.32	 26.0	 0.0	 0.69	 0	    1.00000	    0.00000	 220.0	 3	    1.10000	    0.90000;
	183	 1	 0.0	 0.0	 0.0	 1.83	 0	    1.00000	    0.00000	 150.0	 9	    1.10000	    0.90000;
	184	 1	 -0.0	 -0.0	 0.0	 2.42	 0	    1.00000	    0.00000	 220.0	 5	    1.10000	    0.90000;
	185	 1	 20.9	 3.0	 0.0	 4.11	 0	    1.00000	    0.00000	 154.0	 1	    1.10000	    0.90000;
	186	 1	 19.92	 6.6	 0.0	 0.56	 0	    1.00000	    0.00000	 110.0	 21	    1.10000	    0.90000;
	187	 1	 57.16	 2.0	 0.0	 1.48	 0	    1.00000	    0.00000	 110.0	 22	    1.10000	    0.90000;
	188	 1	 36.84	 13.9	 0.0	 3.3	 0	    1.00000	    0.00000	 220.0	 5	    1.10000	    0.90000;
	189	 1	 -15.04	 -5.12	 0.0	 0.43	 0	    1.00000	    0.00000	 110.0	 18	    1.10000	    0.90000;
	190	 2	 0.0	 0.0	 0.0	 0.0	 0	    1.00000	    0.00000	 110.0	 19	    1.10000	    0.90000;
	191	 1	 0.0	 -0.0	 0.0	 14.19	 0	    1.00000	    0.00000	 220.0	 6	    1.10000	    0.90000;
	192	 2	 0.0	 0.0	 0.0	 0.0	 0	    1.00000	    0.00000	 380.0	 3	    1.10000	    0.90000;
	193	 1	 119.9	 3.7	 0.0	 3.33	 0	    1.00000	    0.00000	 220.0	 3	    1.10000	    0.90000;
	194	 2	 0.0	 0.0	 0.0	 0.0	 0	    1.00000	    0.00000	 150.0	 8	    1.10000	    0.90000;
	195	 1	 73.14	 21.55	 0.0	 8.52	 0	    1.00000	    0.00000	 220.0	 5	    1.10000	    0.90000;
	196	 1	 0.0	 -0.0	 0.0	 12.48	 0	    1.00000	    0.00000	 220.0	 5	    1.10000	    0.90000;
	197	 2	 0.0	 0.0	 0.0	 0.0	 0	    1.00000	    0.00000	 380.0	 3	    1.10000	    0.90000;
	198	 1	 39.74	 11.8	 0.0	 1.44	 0	    1.00000	    0.00000	 220.0	 5	    1.10000	    0.90000;
	199	 1	 86.8	 28.4	 0.0	 1.34	 0	    1.00000	    0.00000	 150.0	 8	    1.10000	    0.90000;
	200	 1	 22.42	 2.1	 0.0	 0.19	 0	    1.00000	    0.00000	 150.0	 1	    1.10000	    0.90000;
...
];

%% generator data
%	bus	Pg	Qg	Qmax	Qmin	Vg	mBase	status	Pmax	Pmin
mpc.gen = [
	2	 -4.265	 10.87	 42.19	 -20.45	 1.0	 100.0	 1	 100.0	 -108.53;
	6	 800.0	 156.48	 524.53	 -211.57	 1.0	 100.0	 1	 1200.0	 400.0;
	8	 262.34	 2.74	 251.73	 -246.25	 1.0	 100.0	 1	 524.68	 0.0;
	18	 333.335	 59.745	 212.97	 -93.48	 1.0	 100.0	 1	 500.0	 166.67;
	25	 200.0	 56.61	 179.43	 -66.21	 1.0	 100.0	 1	 400.0	 0.0;
	32	 8.1	 0.675	 5.91	 -4.56	 1.0	 100.0	 1	 16.2	 0.0;
	33	 2.69	 0.595	 2.27	 -1.08	 1.0	 100.0	 1	 5.38	 0.0;
	39	 20.0	 5.31	 17.76	 -7.14	 1.0	 100.0	 1	 40.0	 0.0;
	49	 240.0	 71.275	 218.52	 -75.97	 1.0	 100.0	 1	 480.0	 0.0;
	51	 -46.335	 0.645	 5.48	 -4.19	 1.0	 100.0	 1	 100.0	 -192.67;
	80	 64.4	 48.08	 139.94	 -43.78	 1.0	 100.0	 1	 100.0	 28.8;
	107	 400.0	 70.03	 253.85	 -113.79	 1.0	 100.0	 1	 600.0	 200.0;
	123	 20.0	 6.39	 18.84	 -6.06	 1.0	 100.0	 1	 40.0	 0.0;
	124	 666.665	 133.865	 440.32	 -172.59	 1.0	 100.0	 1	 1000.0	 333.33;
	141	 1.2	 6.13	 18.59	 -6.33	 1.0	 100.0	 1	 100.0	 -97.6;
	142	 90.0	 22.875	 78.15	 -32.4	 1.0	 100.0	 1	 180.0	 0.0;
	147	 39.335	 20.31	 70.12	 -29.5	 1.0	 100.0	 1	 100.0	 -21.33;
	150	 80.0	 27.275	 77.09	 -22.54	 1.0	 100.0	 1	 160.0	 0.0;
	151	 -23.565	 -10.105	 37.97	 -58.18	 1.0	 100.0	 1	 100.0	 -147.13;
	166	 150.0	 35.57	 127.67	 -56.53	 1.0	 100.0	 1	 300.0	 0.0;
	179	 -69.465	 0.46	 52.64	 -51.72	 1.0	 100.0	 1	 100.0	 -238.93;
	190	 60.0	 16.805	 54.24	 -20.63	 1.0	 100.0	 1	 120.0	 0.0;
	192	 100.0	 30.315	 91.61	 -30.98	 1.0	 100.0	 1	 200.0	 0.0;
	194	 200.0	 38.33	 130.19	 -53.53	 1.0	 100.0	 1	 300.0	 100.0;
	197	 150.0	 32.175	 123.89	 -59.54	 1.0	 100.0	 1	 300.0	 0.0;
	201	 2.685	 0.6	 2.27	 -1.07	 1.0	 100.0	 1	 5.37	 0.0;
	209	 20.0	 6.265	 18.7	 -6.17	 1.0	 100.0	 1	 40.0	 0.0;
	214	 -66.8	 69.555	 192.0	 -52.89	 1.0	 100.0	 1	 100.0	 -233.6;
	219	 1333.335	 324.635	 937.43	 -288.16	 1.0	 100.0	 1	 2000.0	 666.67;
	220	 600.0	 127.985	 402.92	 -146.95	 1.0	 100.0	 1	 900.0	 300.0;
	221	 266.665	 59.31	 183.92	 -65.3	 1.0	 100.0	 1	 400.0	 133.33;
	222	 -48.2	 3.445	 12.51	 -5.62	 1.0	 100.0	 1	 100.0	 -196.4;
	239	 45.3	 13.64	 38.52	 -11.24	 1.0	 100.0	 1	 100.0	 -9.4;
	246	 533.335	 132.745	 378.08	 -112.59	 1.0	 100.0	 1	 800.0	 266.67;
	248	 -64.665	 12.56	 37.47	 -12.35	 1.0	 100.0	 1	 100.0	 -229.33;
	255	 333.335	 67.385	 220.66	 -85.89	 1.0	 100.0	 1	 500.0	 166.67;
	262	 -26.935	 13.19	 38.1	 -11.72	 1.0	 100.0	 1	 100.0	 -153.87;
	263	 27.065	 -0.95	 5.05	 -6.95	 1.0	 100.0	 1	 100.0	 -45.87;
	278	 7.265	 12.805	 37.7	 -12.09	 1.0	 100.0	 1	 100.0	 -85.47;
	282	 1333.335	 312.145	 924.64	 -300.35	 1.0	 100.0	 1	 2000.0	 666.67;
	289	 30.0	 7.605	 26.02	 -10.81	 1.0	 100.0	 1	 60.0	 0.0;
	294	 320.0	 11.89	 45.1	 -21.32	 1.0	 100.0	 1	 480.0	 160.0;
	299	 1066.665	 231.27	 721.25	 -258.71	 1.0	 100.0	 1	 1600.0	 533.33;
	309	 50.0	 11.95	 42.62	 -18.72	 1.0	 100.0	 1	 100.0	 0.0;
	310	 450.0	 0.0	 99999.0	 -99999.0	 1.0	 100.0	 1	 700.0	 200.0;
	313	 5.04	 -1.17	 4.83	 -7.17	 1.0	 100.0	 1	 10.08	 0.0;
	320	 1208.0	 -261.96	 320.04	 -843.96	 1.0	 100.0	 1	 1812.0	 604.0;
	324	 100.0	 34.015	 95.32	 -27.29	 1.0	 100.0	 1	 200.0	 0.0;
	325	 35.735	 0.46	 1.93	 -1.01	 1.0	 100.0	 1	 100.0	 -28.53;
	328	 -1.935	 66.385	 188.91	 -56.14	 1.0	 100.0	 1	 100.0	 -103.87;
	338	 60.0	 18.19	 55.54	 -19.16	 1.0	 100.0	 1	 120.0	 0.0;
	347	 26.71	 -4.67	 33.33	 -42.67	 1.0	 100.0	 1	 53.42	 0.0;
	348	 120.0	 36.835	 110.57	 -36.9	 1.0	 100.0	 1	 240.0	 0.0;
	352	 1333.335	 314.335	 926.35	 -297.68	 1.0	 100.0	 1	 2000.0	 666.67;
	361	 266.665	 63.945	 186.39	 -58.5	 1.0	 100.0	 1	 400.0	 133.33;
	366	 130.665	 -29.15	 61.97	 -120.27	 1.0	 100.0	 1	 196.0	 65.33;
	372	 13.4	 99.325	 282.95	 -84.3	 1.0	 100.0	 1	 100.0	 -73.2;
	382	 40.0	 13.48	 38.4	 -11.44	 1.0	 100.0	 1	 80.0	 0.0;
	389	 60.0	 19.445	 56.73	 -17.84	 1.0	 100.0	 1	 120.0	 0.0;
	394	 1866.665	 367.045	 1224.26	 -490.17	 1.0	 100.0	 1	 2800.0	 933.33;
	406	 30.615	 2.435	 22.22	 -17.35	 1.0	 100.0	 1	 61.23	 0.0;
	409	 8.665	 -2.675	 24.32	 -29.67	 1.0	 100.0	 1	 100.0	 -82.67;
	411	 20.0	 5.195	 17.66	 -7.27	 1.0	 100.0	 1	 40.0	 0.0;
	413	 140.0	 37.14	 124.12	 -49.84	 1.0	 100.0	 1	 280.0	 0.0;
	423	 37.2	 1.31	 5.22	 -2.6	 1.0	 100.0	 1	 100.0	 -25.6;
	424	 466.665	 89.45	 304.38	 -125.48	 1.0	 100.0	 1	 700.0	 233.33;
	433	 333.335	 63.98	 217.18	 -89.22	 1.0	 100.0	 1	 500.0	 166.67;
	434	 48.135	 -0.25	 2.75	 -3.25	 1.0	 100.0	 1	 100.0	 -3.73;
	438	 50.0	 14.46	 45.1	 -16.18	 1.0	 100.0	 1	 100.0	 0.0;
	439	 200.0	 52.975	 175.16	 -69.21	 1.0	 100.0	 1	 400.0	 0.0;
	440	 60.0	 18.36	 55.73	 -19.01	 1.0	 100.0	 1	 120.0	 0.0;
	442	 23.1	 0.51	 1.95	 -0.93	 1.0	 100.0	 1	 100.0	 -53.8;
	447	 20.0	 4.4	 16.84	 -8.04	 1.0	 100.0	 1	 40.0	 0.0;
	452	 12.135	 12.96	 37.86	 -11.94	 1.0	 100.0	 1	 100.0	 -75.73;
	453	 270.0	 91.415	 257.23	 -74.4	 1.0	 100.0	 1	 540.0	 0.0;
	456	 31.28	 2.495	 44.8	 -39.81	 1.0	 100.0	 1	 100.0	 -37.44;
	484	 150.0	 40.78	 132.41	 -50.85	 1.0	 100.0	 1	 300.0	 0.0;
	489	 -21.6	 0.73	 6.28	 -4.82	 1.0	 100.0	 1	 100.0	 -143.2;
	491	 100.0	 33.23	 94.56	 -28.1	 1.0	 100.0	 1	 200.0	 0.0;
	505	 58.015	 -10.495	 37.34	 -58.33	 1.0	 100.0	 1	 116.03	 0.0;
	511	 100.0	 33.17	 94.38	 -28.04	 1.0	 100.0	 1	 200.0	 0.0;
	515	 450.0	 22.63	 72.5	 -27.24	 1.0	 100.0	 1	 700.0	 200.0;
	516	 400.0	 77.56	 261.79	 -106.67	 1.0	 100.0	 1	 600.0	 200.0;
	518	 -223.535	 24.21	 85.63	 -37.21	 1.0	 100.0	 1	 100.0	 -547.07;
	524	 36.225	 -6.46	 30.15	 -43.07	 1.0	 100.0	 1	 72.45	 0.0;
	541	 62.095	 -9.69	 7.81	 -27.19	 1.0	 100.0	 1	 124.19	 0.0;
	564	 15.555	 -0.44	 18.47	 -19.35	 1.0	 100.0	 1	 100.0	 -68.89;
	578	 -23.535	 7.435	 25.88	 -11.01	 1.0	 100.0	 1	 100.0	 -147.07;
	583	 -130.0	 5.425	 17.88	 -7.03	 1.0	 100.0	 1	 100.0	 -360.0;
	587	 266.665	 63.085	 185.56	 -59.39	 1.0	 100.0	 1	 400.0	 133.33;
	590	 183.565	 135.115	 380.31	 -110.08	 1.0	 100.0	 1	 300.0	 67.13;
	615	 20.0	 4.65	 17.09	 -7.79	 1.0	 100.0	 1	 40.0	 0.0;
	616	 320.0	 68.37	 217.9	 -81.16	 1.0	 100.0	 1	 480.0	 160.0;
	618	 533.335	 106.035	 351.18	 -139.11	 1.0	 100.0	 1	 800.0	 266.67;
	628	 90.0	 23.55	 78.79	 -31.69	 1.0	 100.0	 1	 180.0	 0.0;
	636	 60.0	 15.56	 52.99	 -21.87	 1.0	 100.0	 1	 120.0	 0.0;
	637	 11.16	 1.38	 11.2	 -8.44	 1.0	 100.0	 1	 22.32	 0.0;
	639	 19.2	 48.31	 135.52	 -38.9	 1.0	 100.0	 1	 100.0	 -61.6;
	642	 138.045	 -1.45	 90.13	 -93.03	 1.0	 100.0	 1	 276.09	 0.0;
	648	 40.0	 13.04	 37.95	 -11.87	 1.0	 100.0	 1	 80.0	 0.0;
	672	 102.905	 4.2	 71.32	 -62.92	 1.0	 100.0	 1	 205.81	 0.0;
	682	 40.0	 13.855	 38.77	 -11.06	 1.0	 100.0	 1	 80.0	 0.0;
	686	 35.57	 0.245	 34.75	 -34.26	 1.0	 100.0	 1	 100.0	 -28.86;
	692	 266.665	 59.69	 182.17	 -62.79	 1.0	 100.0	 1	 400.0	 133.33;
	697	 533.335	 112.325	 357.4	 -132.75	 1.0	 100.0	 1	 800.0	 266.67;
	698	 200.0	 38.015	 129.94	 -53.91	 1.0	 100.0	 1	 300.0	 100.0;
	709	 32.65	 0.7	 22.23	 -20.83	 1.0	 100.0	 1	 65.3	 0.0;
	711	 59.265	 131.69	 377.01	 -113.63	 1.0	 100.0	 1	 100.0	 18.53;
	713	 60.0	 16.595	 53.98	 -20.79	 1.0	 100.0	 1	 120.0	 0.0;
	714	 533.335	 131.14	 376.36	 -114.08	 1.0	 100.0	 1	 800.0	 266.67;
	715	 244.0	 -56.765	 66.42	 -179.95	 1.0	 100.0	 1	 366.0	 122.0;
	727	 533.335	 134.26	 379.61	 -111.09	 1.0	 100.0	 1	 800.0	 266.67;
	728	 37.14	 -4.29	 35.73	 -44.31	 1.0	 100.0	 1	 74.28	 0.0;
	735	 89.25	 -16.06	 89.94	 -122.06	 1.0	 100.0	 1	 178.5	 0.0;
	738	 172.995	 6.355	 107.86	 -95.15	 1.0	 100.0	 1	 311.39	 34.6;
	739	 333.335	 59.76	 212.97	 -93.45	 1.0	 100.0	 1	 500.0	 166.67;
	749	 120.0	 30.925	 105.69	 -43.84	 1.0	 100.0	 1	 240.0	 0.0;
	751	 150.0	 44.85	 136.94	 -47.24	 1.0	 100.0	 1	 300.0	 0.0;
	757	 60.0	 13.945	 51.3	 -23.41	 1.0	 100.0	 1	 120.0	 0.0;
	763	 30.0	 9.455	 27.88	 -8.97	 1.0	 100.0	 1	 60.0	 0.0;
	764	 266.665	 51.525	 174.17	 -71.12	 1.0	 100.0	 1	 400.0	 133.33;
	765	 90.0	 21.46	 76.76	 -33.84	 1.0	 100.0	 1	 180.0	 0.0;
	774	 70.56	 10.415	 81.57	 -60.74	 1.0	 100.0	 1	 141.12	 0.0;
	776	 -24.265	 5.715	 18.16	 -6.73	 1.0	 100.0	 1	 100.0	 -148.53;
	778	 16.79	 1.505	 12.37	 -9.36	 1.0	 100.0	 1	 33.58	 0.0;
	779	 22.5	 4.88	 17.34	 -7.58	 1.0	 100.0	 1	 45.0	 0.0;
	780	 40.0	 12.555	 37.43	 -12.32	 1.0	 100.0	 1	 80.0	 0.0;
	791	 800.0	 200.075	 567.63	 -167.48	 1.0	 100.0	 1	 1200.0	 400.0;
	795	 40.0	 11.855	 36.75	 -13.04	 1.0	 100.0	 1	 80.0	 0.0;
	796	 40.0	 14.13	 39.0	 -10.74	 1.0	 100.0	 1	 80.0	 0.0;
	803	 -9.465	 24.245	 74.03	 -25.54	 1.0	 100.0	 1	 100.0	 -118.93;
	807	 1333.335	 251.75	 864.47	 -360.97	 1.0	 100.0	 1	 2000.0	 666.67;
	813	 401.335	 9.075	 309.08	 -290.93	 1.0	 100.0	 1	 602.0	 200.67;
	823	 1333.335	 314.185	 926.68	 -298.31	 1.0	 100.0	 1	 2000.0	 666.67;
	828	 29.35	 -0.78	 20.87	 -22.43	 1.0	 100.0	 1	 58.7	 0.0;
	831	 60.0	 18.205	 55.59	 -19.18	 1.0	 100.0	 1	 120.0	 0.0;
	832	 400.0	 80.94	 264.71	 -102.83	 1.0	 100.0	 1	 600.0	 200.0;
	837	 30.0	 8.765	 27.19	 -9.66	 1.0	 100.0	 1	 60.0	 0.0;
	844	 60.0	 16.94	 54.35	 -20.47	 1.0	 100.0	 1	 120.0	 0.0;
	848	 51.345	 5.755	 49.63	 -38.12	 1.0	 100.0	 1	 100.0	 2.69;
	849	 8.785	 0.77	 6.45	 -4.91	 1.0	 100.0	 1	 17.57	 0.0;
	851	 100.0	 34.415	 96.64	 -27.81	 1.0	 100.0	 1	 200.0	 0.0;
	858	 666.665	 134.26	 440.67	 -172.15	 1.0	 100.0	 1	 1000.0	 333.33;
	861	 60.0	 20.65	 57.98	 -16.68	 1.0	 100.0	 1	 120.0	 0.0;
	875	 333.335	 74.985	 228.16	 -78.19	 1.0	 100.0	 1	 500.0	 166.67;
	888	 200.0	 46.665	 138.6	 -45.27	 1.0	 100.0	 1	 300.0	 100.0;
	891	 1600.0	 361.75	 1097.41	 -373.91	 1.0	 100.0	 1	 2400.0	 800.0;
	894	 160.0	 42.095	 141.93	 -57.74	 1.0	 100.0	 1	 320.0	 0.0;
	896	 48.2	 -1.4	 8.6	 -11.4	 1.0	 100.0	 1	 100.0	 -3.6;
	913	 1133.335	 251.085	 772.11	 -269.94	 1.0	 100.0	 1	 1700.0	 566.67;
	916	 150.0	 42.345	 134.45	 -49.76	 1.0	 100.0	 1	 300.0	 0.0;
	917	 20.0	 5.745	 18.22	 -6.73	 1.0	 100.0	 1	 40.0	 0.0;
	926	 314.665	 56.58	 201.12	 -87.96	 1.0	 100.0	 1	 472.0	 157.33;
	927	 30.0	 10.265	 28.69	 -8.16	 1.0	 100.0	 1	 60.0	 0.0;
	930	 600.0	 130.955	 406.66	 -144.75	 1.0	 100.0	 1	 900.0	 300.0;
	972	 1333.335	 321.605	 934.73	 -291.52	 1.0	 100.0	 1	 2000.0	 666.67;
	974	 60.0	 17.075	 54.36	 -20.21	 1.0	 100.0	 1	 120.0	 0.0;
	976	 53.915	 0.335	 36.02	 -35.35	 1.0	 100.0	 1	 107.83	 0.0;
	978	 7.575	 1.72	 6.43	 -2.99	 1.0	 100.0	 1	 15.15	 0.0;
	983	 1333.335	 335.545	 948.36	 -277.27	 1.0	 100.0	 1	 2000.0	 666.67;
	984	 1066.665	 249.045	 738.93	 -240.84	 1.0	 100.0	 1	 1600.0	 533.33;
	991	 20.0	 4.39	 16.83	 -8.05	 1.0	 100.0	 1	 40.0	 0.0;
	992	 30.0	 7.55	 25.97	 -10.87	 1.0	 100.0	 1	 60.0	 0.0;
	993	 -41.265	 5.39	 17.85	 -7.07	 1.0	 100.0	 1	 100.0	 -182.53;
	1001	 60.0	 17.605	 55.02	 -19.81	 1.0	 100.0	 1	 120.0	 0.0;
	1002	 100.0	 27.2	 89.55	 -35.15	 1.0	 100.0	 1	 200.0	 0.0;
	1004	 50.0	 13.295	 43.99	 -17.4	 1.0	 100.0	 1	 100.0	 0.0;
	1021	 -69.535	 21.055	 58.34	 -16.23	 1.0	 100.0	 1	 100.0	 -239.07;
	1029	 100.0	 29.455	 90.64	 -31.73	 1.0	 100.0	 1	 200.0	 0.0;
	1030	 250.0	 21.885	 71.66	 -27.89	 1.0	 100.0	 1	 400.0	 100.0;
	1036	 200.0	 45.47	 137.39	 -46.45	 1.0	 100.0	 1	 300.0	 100.0;
	1043	 600.0	 112.24	 387.88	 -163.4	 1.0	 100.0	 1	 900.0	 300.0;
	1050	 385.385	 50.855	 173.5	 -71.79	 1.0	 100.0	 1	 518.72	 252.05;
	1082	 266.665	 49.06	 171.62	 -73.5	 1.0	 100.0	 1	 400.0	 133.33;
	1083	 60.0	 17.515	 54.91	 -19.88	 1.0	 100.0	 1	 120.0	 0.0;
	1088	 22.995	 2.2	 8.06	 -3.66	 1.0	 100.0	 1	 45.99	 0.0;
	1093	 800.0	 182.77	 550.69	 -185.15	 1.0	 100.0	 1	 1200.0	 400.0;
	1097	 9.19	 -0.235	 6.17	 -6.64	 1.0	 100.0	 1	 18.38	 0.0;
	1098	 133.335	 30.09	 91.42	 -31.24	 1.0	 100.0	 1	 200.0	 66.67;
	1100	 40.0	 11.895	 36.8	 -13.01	 1.0	 100.0	 1	 80.0	 0.0;
	1102	 -32.77	 13.23	 38.05	 -11.59	 1.0	 100.0	 1	 100.0	 -165.54;
	1103	 533.335	 132.0	 376.66	 -112.66	 1.0	 100.0	 1	 800.0	 266.67;
	1117	 576.0	 -89.82	 307.47	 -487.11	 1.0	 100.0	 1	 864.0	 288.0;
	1119	 200.0	 34.58	 126.49	 -57.33	 1.0	 100.0	 1	 300.0	 100.0;
	1121	 180.0	 47.695	 158.2	 -62.81	 1.0	 100.0	 1	 360.0	 0.0;
	1122	 95.14	 5.96	 68.0	 -56.08	 1.0	 100.0	 1	 190.28	 0.0;
	1125	 120.0	 39.915	 114.57	 -34.74	 1.0	 100.0	 1	 240.0	 0.0;
	1131	 600.0	 132.025	 407.66	 -143.61	 1.0	 100.0	 1	 900.0	 300.0;
	1138	 666.665	 125.87	 432.44	 -180.7	 1.0	 100.0	 1	 1000.0	 333.33;
	1139	 120.0	 33.195	 107.89	 -41.5	 1.0	 100.0	 1	 240.0	 0.0;
	1145	 245.12	 4.415	 153.07	 -144.24	 1.0	 100.0	 1	 452.53	 37.71;
	1173	 -33.135	 0.485	 1.85	 -0.88	 1.0	 100.0	 1	 100.0	 -166.27;
	1174	 20.0	 6.165	 18.61	 -6.28	 1.0	 100.0	 1	 40.0	 0.0;
	1175	 450.0	 34.615	 108.35	 -39.12	 1.0	 100.0	 1	 700.0	 200.0;
	1176	 52.23	 33.02	 94.13	 -28.09	 1.0	 100.0	 1	 100.0	 4.46;
	1184	 200.0	 55.235	 178.02	 -67.55	 1.0	 100.0	 1	 400.0	 0.0;
	1220	 90.0	 28.795	 84.07	 -26.48	 1.0	 100.0	 1	 180.0	 0.0;
	1225	 145.215	 31.6	 118.84	 -55.64	 1.0	 100.0	 1	 290.43	 0.0;
	1237	 1333.335	 293.585	 906.61	 -319.44	 1.0	 100.0	 1	 2000.0	 666.67;
	1241	 32.815	 0.655	 22.29	 -20.98	 1.0	 100.0	 1	 65.63	 0.0;
...
];

%% generator cost data
%	2	startup	shutdown	n	c(n-1)	...	c0
mpc.gencost = [
	2	 0.0	 0.0	 3	   0.000000	  48.144896	   0.000000;
	2	 0.0	 0.0	 3	   0.000000	  33.752152	   0.000000;
	2	 0.0	 0.0	 3	   0.000000	  18.944562	   0.000000;
	2	 0.0	 0.0	 3	   0.000000	  32.963567	   0.000000;
	2	 0.0	 0.0	 3	   0.000000	  34.582172	   0.000000;
	2	 0.0	 0.0	 3	   0.000000	 102.123377	   0.000000;
	2	 0.0	 0.0	 3	   0.000000	  27.491952	   0.000000;
	2	 0.0	 0.0	 3	   0.000000	 106.121938	   0.000000;
	2	 0.0	 0.0	 3	   0.000000	  42.422147	   0.000000;
	2	 0.0	 0.0	 3	   0.000000	  19.547479	   0.000000;
	2	 0.0	 0.0	 3	   0.000000	  19.340722	   0.000000;
	2	 0.0	 0.0	 3	   0.000000	  27.847851	   0.000000;
	2	 0.0	 0.0	 3	   0.000000	  16.555469	   0.000000;
	2	 0.0	 0.0	 3	   0.000000	  25.372493	   0.000000;
	2	 0.0	 0.0	 3	   0.000000	  26.375422	   0.000000;
	2	 0.0	 0.0	 3	   0.000000	  14.224446	   0.000000;
	2	 0.0	 0.0	 3	   0.000000	  41.806983	   0.000000;
	2	 0.0	 0.0	 3	   0.000000	  32.631964	   0.000000;
	2	 0.0	 0.0	 3	   0.000000	  24.120319	   0.000000;
	2	 0.0	 0.0	 3	   0.000000	  20.196291	   0.000000;
	2	 0.0	 0.0	 3	   0.000000	  67.893274	   0.000000;
	2	 0.0	 0.0	 3	   0.000000	  40.690715	   0.000000;
	2	 0.0	 0.0	 3	   0.000000	  24.756254	   0.000000;
	2	 0.0	 0.0	 3	   0.000000	  32.534667	   0.000000;
	2	 0.0	 0.0	 3	   0.000000	  31.107941	   0.000000;
	2	 0.0	 0.0	 3	   0.000000	  36.105459	   0.000000;
	2	 0.0	 0.0	 3	   0.000000	 111.472656	   0.000000;
	2	 0.0	 0.0	 3	   0.000000	  22.223030	   0.000000;
	2	 0.0	 0.0	 3	   0.000000	   9.538301	   0.000000;
	2	 0.0	 0.0	 3	   0.000000	  19.957222	   0.000000;
	2	 0.0	 0.0	 3	   0.000000	  19.521714	   0.000000;
	2	 0.0	 0.0	 3	   0.000000	  17.536720	   0.000000;
	2	 0.0	 0.0	 3	   0.000000	  50.147209	   0.000000;
	2	 0.0	 0.0	 3	   0.000000	  20.161061	   0.000000;
	2	 0.0	 0.0	 3	   0.000000	  30.649135	   0.000000;
	2	 0.0	 0.0	 3	   0.000000	  32.216573	   0.000000;
	2	 0.0	 0.0	 3	   0.000000	   5.143579	   0.000000;
	2	 0.0	 0.0	 3	   0.000000	  28.608411	   0.000000;
	2	 0.0	 0.0	 3	   0.000000	  47.435671	   0.000000;
	2	 0.0	 0.0	 3	   0.000000	  24.722854	   0.000000;
	2	 0.0	 0.0	 3	   0.000000	 114.458323	   0.000000;
	2	 0.0	 0.0	 3	   0.000000	  62.457256	   0.000000;
	2	 0.0	 0.0	 3	   0.000000	  23.320554	   0.000000;
	2	 0.0	 0.0	 3	   0.000000	  31.109769	   0.000000;
	2	 0.0	 0.0	 3	   0.000000	  28.715930	   0.000000;
	2	 0.0	 0.0	 3	   0.000000	  34.855361	   0.000000;
	2	 0.0	 0.0	 3	   0.000000	   7.046649	   0.000000;
	2	 0.0	 0.0	 3	   0.000000	  24.293749	   0.000000;
	2	 0.0	 0.0	 3	   0.000000	  23.344146	   0.000000;
	2	 0.0	 0.0	 3	   0.000000	  17.792717	   0.000000;
	2	 0.0	 0.0	 3	   0.000000	  26.890752	   0.000000;
	2	 0.0	 0.0	 3	   0.000000	  37.737199	   0.000000;
	2	 0.0	 0.0	 3	   0.000000	  38.039292	   0.000000;
	2	 0.0	 0.0	 3	   0.000000	  29.726025	   0.000000;
	2	 0.0	 0.0	 3	   0.000000	  41.536201	   0.000000;
	2	 0.0	 0.0	 3	   0.000000	  46.002594	   0.000000;
	2	 0.0	 0.0	 3	   0.000000	  18.286323	   0.000000;
	2	 0.0	 0.0	 3	   0.000000	  41.665073	   0.000000;
	2	 0.0	 0.0	 3	   0.000000	  30.265444	   0.000000;
	2	 0.0	 0.0	 3	   0.000000	  45.015219	   0.000000;
	2	 0.0	 0.0	 3	   0.000000	  31.330953	   0.000000;
	2	 0.0	 0.0	 3	   0.000000	  15.386487	   0.000000;
	2	 0.0	 0.0	 3	   0.000000	 101.914927	   0.000000;
	2	 0.0	 0.0	 3	   0.000000	  32.514558	   0.000000;
	2	 0.0	 0.0	 3	   0.000000	  36.294770	   0.000000;
	2	 0.0	 0.0	 3	   0.000000	  24.807489	   0.000000;
	2	 0.0	 0.0	 3	   0.000000	  23.295725	   0.000000;
	2	 0.0	 0.0	 3	   0.000000	  31.589696	   0.000000;
	2	 0.0	 0.0	 3	   0.000000	   9.952051	   0.000000;
	2	 0.0	 0.0	 3	   0.000000	  37.954064	   0.000000;
	2	 0.0	 0.0	 3	   0.000000	  48.191448	   0.000000;
	2	 0.0	 0.0	 3	   0.000000	  37.711424	   0.000000;
	2	 0.0	 0.0	 3	   0.000000	  10.804978	   0.000000;
	2	 0.0	 0.0	 3	   0.000000	  28.033588	   0.000000;
	2	 0.0	 0.0	 3	   0.000000	  27.152413	   0.000000;
	2	 0.0	 0.0	 3	   0.000000	  24.325875	   0.000000;
	2	 0.0	 0.0	 3	   0.000000	  21.823998	   0.000000;
	2	 0.0	 0.0	 3	   0.000000	  40.469758	   0.000000;
	2	 0.0	 0.0	 3	   0.000000	  28.593272	   0.000000;
	2	 0.0	 0.0	 3	   0.000000	  24.551931	   0.000000;
	2	 0.0	 0.0	 3	   0.000000	  26.129224	   0.000000;
	2	 0.0	 0.0	 3	   0.000000	  33.053251	   0.000000;
	2	 0.0	 0.0	 3	   0.000000	  26.278186	   0.000000;
	2	 0.0	 0.0	 3	   0.000000	  40.651028	   0.000000;
	2	 0.0	 0.0	 3	   0.000000	  87.617497	   0.000000;
	2	 0.0	 0.0	 3	   0.000000	  44.138695	   0.000000;
	2	 0.0	 0.0	 3	   0.000000	  29.848214	   0.000000;
	2	 0.0	 0.0	 3	   0.000000	  30.733565	   0.000000;
	2	 0.0	 0.0	 3	   0.000000	  41.482425	   0.000000;
	2	 0.0	 0.0	 3	   0.000000	  55.459703	   0.000000;
	2	 0.0	 0.0	 3	   0.000000	  26.505085	   0.000000;
	2	 0.0	 0.0	 3	   0.000000	  15.670212	   0.000000;
	2	 0.0	 0.0	 3	   0.000000	  36.975457	   0.000000;
	2	 0.0	 0.0	 3	   0.000000	  15.242647	   0.000000;
	2	 0.0	 0.0	 3	   0.000000	  16.025704	   0.000000;
	2	 0.0	 0.0	 3	   0.000000	  37.556910	   0.000000;
	2	 0.0	 0.0	 3	   0.000000	 117.356072	   0.000000;
	2	 0.0	 0.0	 3	   0.000000	  26.774912	   0.000000;
	2	 0.0	 0.0	 3	   0.000000	  31.390872	   0.000000;
	2	 0.0	 0.0	 3	   0.000000	  52.037941	   0.000000;
	2	 0.0	 0.0	 3	   0.000000	  44.179903	   0.000000;
	2	 0.0	 0.0	 3	   0.000000	  42.501955	   0.000000;
	2	 0.0	 0.0	 3	   0.000000	  28.316382	   0.000000;
	2	 0.0	 0.0	 3	   0.000000	  34.908855	   0.000000;
	2	 0.0	 0.0	 3	   0.000000	  15.814239	   0.000000;
	2	 0.0	 0.0	 3	   0.000000	  25.496477	   0.000000;
	2	 0.0	 0.0	 3	   0.000000	 104.731813	   0.000000;
	2	 0.0	 0.0	 3	   0.000000	  20.270435	   0.000000;
	2	 0.0	 0.0	 3	   0.000000	  45.930525	   0.000000;
	2	 0.0	 0.0	 3	   0.000000	   7.378171	   0.000000;
	2	 0.0	 0.0	 3	   0.000000	  20.668034	   0.000000;
	2	 0.0	 0.0	 3	   0.000000	  35.359581	   0.000000;
	2	 0.0	 0.0	 3	   0.000000	 107.620093	   0.000000;
	2	 0.0	 0.0	 3	   0.000000	  37.337555	   0.000000;
	2	 0.0	 0.0	 3	   0.000000	  17.315011	   0.000000;
	2	 0.0	 0.0	 3	   0.000000	  16.235620	   0.000000;
	2	 0.0	 0.0	 3	   0.000000	  30.604601	   0.000000;
	2	 0.0	 0.0	 3	   0.000000	  28.363783	   0.000000;
	2	 0.0	 0.0	 3	   0.000000	  16.000500	   0.000000;
	2	 0.0	 0.0	 3	   0.000000	  20.927762	   0.000000;
	2	 0.0	 0.0	 3	   0.000000	  20.734171	   0.000000;
	2	 0.0	 0.0	 3	   0.000000	  21.919716	   0.000000;
	2	 0.0	 0.0	 3	   0.000000	  28.633061	   0.000000;
	2	 0.0	 0.0	 3	   0.000000	  31.847313	   0.000000;
	2	 0.0	 0.0	 3	   0.000000	  28.689607	   0.000000;
	2	 0.0	 0.0	 3	   0.000000	  32.095756	   0.000000;
	2	 0.0	 0.0	 3	   0.000000	  12.590748	   0.000000;
	2	 0.0	 0.0	 3	   0.000000	   6.192791	   0.000000;
	2	 0.0	 0.0	 3	   0.000000	  26.395841	   0.000000;
	2	 0.0	 0.0	 3	   0.000000	  39.396239	   0.000000;
	2	 0.0	 0.0	 3	   0.000000	  47.118951	   0.000000;
	2	 0.0	 0.0	 3	   0.000000	   7.607693	   0.000000;
	2	 0.0	 0.0	 3	   0.000000	  20.753305	   0.000000;
	2	 0.0	 0.0	 3	   0.000000	   7.033043	   0.000000;
	2	 0.0	 0.0	 3	   0.000000	  47.432749	   0.000000;
	2	 0.0	 0.0	 3	   0.000000	  43.641911	   0.000000;
	2	 0.0	 0.0	 3	   0.000000	  27.601252	   0.000000;
	2	 0.0	 0.0	 3	   0.000000	 120.258328	   0.000000;
	2	 0.0	 0.0	 3	   0.000000	  38.083093	   0.000000;
	2	 0.0	 0.0	 3	   0.000000	  16.412766	   0.000000;
	2	 0.0	 0.0	 3	   0.000000	  24.081564	   0.000000;
	2	 0.0	 0.0	 3	   0.000000	  41.329283	   0.000000;
	2	 0.0	 0.0	 3	   0.000000	  27.329787	   0.000000;
	2	 0.0	 0.0	 3	   0.000000	  14.754364	   0.000000;
	2	 0.0	 0.0	 3	   0.000000	  46.438736	   0.000000;
	2	 0.0	 0.0	 3	   0.000000	  19.898489	   0.000000;
	2	 0.0	 0.0	 3	   0.000000	  43.716118	   0.000000;
	2	 0.0	 0.0	 3	   0.000000	  22.551616	   0.000000;
	2	 0.0	 0.0	 3	   0.000000	  56.079880	   0.000000;
	2	 0.0	 0.0	 3	   0.000000	  32.053825	   0.000000;
	2	 0.0	 0.0	 3	   0.000000	  27.044824	   0.000000;
	2	 0.0	 0.0	 3	   0.000000	  27.509630	   0.000000;
	2	 0.0	 0.0	 3	   0.000000	  22.569503	   0.000000;
	2	 0.0	 0.0	 3	   0.000000	  19.401918	   0.000000;
	2	 0.0	 0.0	 3	   0.000000	  37.494446	   0.000000;
	2	 0.0	 0.0	 3	   0.000000	  19.511724	   0.000000;
	2	 0.0	 0.0	 3	   0.000000	  15.775384	   0.000000;
	2	 0.0	 0.0	 3	   0.000000	  31.825257	   0.000000;
	2	 0.0	 0.0	 3	   0.000000	 108.230335	   0.000000;
	2	 0.0	 0.0	 3	   0.000000	  29.173886	   0.000000;
	2	 0.0	 0.0	 3	   0.000000	  34.373029	   0.000000;
	2	 0.0	 0.0	 3	   0.000000	  47.096869	   0.000000;
	2	 0.0	 0.0	 3	   0.000000	  30.927221	   0.000000;
	2	 0.0	 0.0	 3	   0.000000	  34.476474	   0.000000;
	2	 0.0	 0.0	 3	   0.000000	  17.075049	   0.000000;
	2	 0.0	 0.0	 3	   0.000000	  41.084275	   0.000000;
	2	 0.0	 0.0	 3	   0.000000	  36.997549	   0.000000;
	2	 0.0	 0.0	 3	   0.000000	  47.161573	   0.000000;
	2	 0.0	 0.0	 3	   0.000000	   9.834682	   0.000000;
	2	 0.0	 0.0	 3	   0.000000	  53.715422	   0.000000;
	2	 0.0	 0.0	 3	   0.000000	  34.061291	   0.000000;
	2	 0.0	 0.0	 3	   0.000000	  25.255410	   0.000000;
	2	 0.0	 0.0	 3	   0.000000	  55.892800	   0.000000;
	2	 0.0	 0.0	 3	   0.000000	  19.899324	   0.000000;
	2	 0.0	 0.0	 3	   0.000000	  31.421517	   0.000000;
	2	 0.0	 0.0	 3	   0.000000	  18.958013	   0.000000;
	2	 0.0	 0.0	 3	   0.000000	  23.103282	   0.000000;
	2	 0.0	 0.0	 3	   0.000000	  40.866196	   0.000000;
	2	 0.0	 0.0	 3	   0.000000	  31.300609	   0.000000;
	2	 0.0	 0.0	 3	   0.000000	  12.799906	   0.000000;
	2	 0.0	 0.0	 3	   0.000000	  32.800816	   0.000000;
	2	 0.0	 0.0	 3	   0.000000	  27.557401	   0.000000;
	2	 0.0	 0.0	 3	   0.000000	  33.259257	   0.000000;
	2	 0.0	 0.0	 3	   0.000000	  35.557610	   0.000000;
	2	 0.0	 0.0	 3	   0.000000	  26.911611	   0.000000;
	2	 0.0	 0.0	 3	   0.000000	  39.014432	   0.000000;
	2	 0.0	 0.0	 3	   0.000000	   1.071850	   0.000000;
	2	 0.0	 0.0	 3	   0.000000	  25.982049	   0.000000;
	2	 0.0	 0.0	 3	   0.000000	   8.151955	   0.000000;
	2	 0.0	 0.0	 3	   0.000000	  20.162431	   0.000000;
	2	 0.0	 0.0	 3	   0.000000	  33.135441	   0.000000;
	2	 0.0	 0.0	 3	   0.000000	  55.603662	   0.000000;
	2	 0.0	 0.0	 3	   0.000000	 118.220193	   0.000000;
	2	 0.0	 0.0	 3	   0.000000	  11.367380	   0.000000;
	2	 0.0	 0.0	 3	   0.000000	  33.103440	   0.000000;
	2	 0.0	 0.0	 3	   0.000000	  47.934404	   0.000000;
	2	 0.0	 0.0	 3	   0.000000	  22.550650	   0.000000;
	2	 0.0	 0.0	 3	   0.000000	  18.177738	   0.000000;
	2	 0.0	 0.0	 3	   0.000000	  43.358057	   0.000000;
	2	 0.0	 0.0	 3	   0.000000	  41.928142	   0.000000;
...
];

%% branch data
%	fbus	tbus	r	x	b	rateA	rateB	rateC	ratio	angle	status	angmin	angmax
mpc.branch = [
	5147	 3097	 0.0006	 0.00616	 0.0	 823.0	 5104.0	 5104.0	 0.0	 0.0	 1	 -11.8401863096	 11.8401863096;
	5147	 8763	 0.0005	 0.0074	 0.0	 921.0	 4259.0	 4259.0	 0.0	 0.0	 1	 -11.8401863096	 11.8401863096;
	2169	 3124	 0.00107	 0.00626	 0.0	 476.0	 4974.0	 4974.0	 0.0	 0.0	 1	 -11.8401863096	 11.8401863096;
	2169	 3234	 0.000841	 0.0055	 0.0	 476.0	 5678.0	 5678.0	 0.0	 0.0	 1	 -11.8401863096	 11.8401863096;
	3517	 711	 0.00143	 0.01563	 0.0	 1645.0	 2013.0	 2013.0	 0.0	 0.0	 1	 -11.8401863096	 11.8401863096;
	3517	 4533	 0.00146	 0.01692	 0.0	 1711.0	 2838.0	 2838.0	 0.0	 0.0	 1	 -11.8401863096	 11.8401863096;
	427	 5425	 7e-05	 0.00057	 0.0	 1711.0	 55004.0	 55004.0	 0.0	 0.0	 1	 -11.8401863096	 11.8401863096;
	427	 4704	 6e-05	 0.00056	 0.0	 1514.0	 56085.0	 56085.0	 0.0	 0.0	 1	 -11.8401863096	 11.8401863096;
	5960	 7431	 0.003349	 0.01656	 0.0	 1870.0	 1870.0	 1870.0	 0.0	 0.0	 1	 -11.8401863096	 11.8401863096;
	5960	 3186	 0.003409	 0.016211	 0.0	 1907.0	 1907.0	 1907.0	 0.0	 0.0	 1	 -11.8401863096	 11.8401863096;
	4481	 7431	 0.003479	 0.01586	 0.0	 1946.0	 1946.0	 1946.0	 0.0	 0.0	 1	 -11.8401863096	 11.8401863096;
	4481	 3186	 0.003099	 0.017969	 0.0	 1733.0	 1733.0	 1733.0	 0.0	 0.0	 1	 -11.8401863096	 11.8401863096;
	531	 9203	 0.00127	 0.01842	 0.0	 823.0	 1711.0	 1711.0	 0.0	 0.0	 1	 -11.8401863096	 11.8401863096;
	531	 835	 0.00126	 0.01847	 0.0	 1547.0	 1707.0	 1707.0	 0.0	 0.0	 1	 -11.8401863096	 11.8401863096;
	1656	 118	 0.0013	 0.01808	 0.0	 1218.0	 1743.0	 1743.0	 0.0	 0.0	 1	 -11.8401863096	 11.8401863096;
	1656	 3449	 0.00131	 0.01765	 0.0	 1744.0	 1785.0	 1785.0	 0.0	 0.0	 1	 -11.8401863096	 11.8401863096;
	5084	 1809	 0.00065	 0.01311	 0.0	 2407.0	 2407.0	 2407.0	 0.0	 0.0	 1	 -11.8401863096	 11.8401863096;
	5084	 6398	 0.00067	 0.00974	 0.0	 2598.0	 3236.0	 3236.0	 0.0	 0.0	 1	 -11.8401863096	 11.8401863096;
	5205	 7833	 0.00236	 0.01418	 0.0	 553.0	 2198.0	 2198.0	 0.0	 0.0	 1	 -11.8401863096	 11.8401863096;
	5205	 7770	 0.002169	 0.015909	 0.0	 514.0	 1968.0	 1968.0	 0.0	 0.0	 1	 -11.8401863096	 11.8401863096;
	354	 1278	 0.00027	 0.00254	 0.0	 1349.0	 12367.0	 12367.0	 0.0	 0.0	 1	 -11.8401863096	 11.8401863096;
	354	 7617	 0.00027	 0.00259	 0.0	 1119.0	 12131.0	 12131.0	 0.0	 0.0	 1	 -11.8401863096	 11.8401863096;
	2611	 1278	 0.00033	 0.00302	 0.0	 1448.0	 10398.0	 10398.0	 0.0	 0.0	 1	 -11.8401863096	 11.8401863096;
	2611	 905	 0.00029	 0.00312	 0.0	 1613.0	 10081.0	 10081.0	 0.0	 0.0	 1	 -11.8401863096	 11.8401863096;
	1842	 6542	 0.000289	 0.00137	 0.0	 533.0	 22560.0	 22560.0	 0.0	 0.0	 1	 -11.8401863096	 11.8401863096;
	1842	 7622	 0.000219	 0.00263	 0.0	 11969.0	 11969.0	 11969.0	 0.0	 0.0	 1	 -11.8401863096	 11.8401863096;
	2134	 6542	 0.000289	 0.001341	 0.0	 457.0	 23027.0	 23027.0	 0.0	 0.0	 1	 -11.8401863096	 11.8401863096;
	2134	 8785	 0.000229	 0.00257	 0.0	 12243.0	 12243.0	 12243.0	 0.0	 0.0	 1	 -11.8401863096	 11.8401863096;
	6613	 6542	 0.000841	 0.00689	 0.0	 514.0	 4551.0	 4551.0	 0.0	 0.0	 1	 -11.8401863096	 11.8401863096;
	6613	 1651	 0.000979	 0.00586	 0.0	 495.0	 5317.0	 5317.0	 0.0	 0.0	 1	 -11.8401863096	 11.8401863096;
	5773	 6542	 0.00014	 0.0012	 0.0	 26146.0	 26146.0	 26146.0	 0.0	 0.0	 1	 -11.8401863096	 11.8401863096;
	5773	 7840	 0.000211	 0.001539	 0.0	 20335.0	 20335.0	 20335.0	 0.0	 0.0	 1	 -11.8401863096	 11.8401863096;
	5214	 6542	 0.000401	 0.004901	 0.0	 6424.0	 6424.0	 6424.0	 0.0	 0.0	 1	 -11.8401863096	 11.8401863096;
	5214	 7840	 0.000219	 0.00151	 0.0	 533.0	 20703.0	 20703.0	 0.0	 0.0	 1	 -11.8401863096	 11.8401863096;
	8072	 6542	 0.000729	 0.004539	 0.0	 495.0	 6872.0	 6872.0	 0.0	 0.0	 1	 -11.8401863096	 11.8401863096;
	8072	 2759	 0.00062	 0.00482	 0.0	 495.0	 6500.0	 6500.0	 0.0	 0.0	 1	 -11.8401863096	 11.8401863096;
	2971	 6069	 0.00052	 0.00407	 0.0	 1481.0	 7699.0	 7699.0	 0.0	 0.0	 1	 -11.8401863096	 11.8401863096;
	2971	 3445	 0.00034	 0.00502	 0.0	 1843.0	 6278.0	 6278.0	 0.0	 0.0	 1	 -11.8401863096	 11.8401863096;
	7561	 6069	 0.00065	 0.00698	 0.0	 1711.0	 4506.0	 4506.0	 0.0	 0.0	 1	 -11.8401863096	 11.8401863096;
	7561	 8825	 0.00059	 0.00806	 0.0	 1678.0	 3909.0	 3909.0	 0.0	 0.0	 1	 -11.8401863096	 11.8401863096;
	6748	 8864	 0.00063	 0.00464	 0.0	 495.0	 6746.0	 6746.0	 0.0	 0.0	 1	 -11.8401863096	 11.8401863096;
	6748	 5078	 0.000599	 0.005099	 0.0	 533.0	 6153.0	 6153.0	 0.0	 0.0	 1	 -11.8401863096	 11.8401863096;
	4956	 4785	 0.00064	 0.00307	 0.0	 10073.0	 10073.0	 10073.0	 0.0	 0.0	 1	 -11.8401863096	 11.8401863096;
	4956	 7667	 0.000659	 0.003	 0.0	 10284.0	 10284.0	 10284.0	 0.0	 0.0	 1	 -11.8401863096	 11.8401863096;
	8619	 6775	 0.00053	 0.00528	 0.0	 1086.0	 5953.0	 5953.0	 0.0	 0.0	 1	 -11.8401863096	 11.8401863096;
	8619	 8195	 0.00056	 0.0053	 0.0	 1283.0	 5927.0	 5927.0	 0.0	 0.0	 1	 -11.8401863096	 11.8401863096;
	3107	 4785	 0.0018	 0.007919	 0.0	 3890.0	 3890.0	 3890.0	 0.0	 0.0	 1	 -11.8401863096	 11.8401863096;
	3107	 7154	 0.001651	 0.00862	 0.0	 3600.0	 3600.0	 3600.0	 0.0	 0.0	 1	 -11.8401863096	 11.8401863096;
	5437	 6775	 0.00045	 0.00545	 0.0	 1382.0	 5777.0	 5777.0	 0.0	 0.0	 1	 -11.8401863096	 11.8401863096;
	5437	 905	 0.00052	 0.00476	 0.0	 1547.0	 6597.0	 6597.0	 0.0	 0.0	 1	 -11.8401863096	 11.8401863096;
	2282	 6876	 0.01286	 0.037421	 0.0	 799.0	 799.0	 799.0	 0.0	 0.0	 1	 -11.8401863096	 11.8401863096;
	2282	 5654	 0.032397	 0.123	 0.0	 249.0	 249.0	 249.0	 0.0	 0.0	 1	 -11.8401863096	 11.8401863096;
	474	 6876	 0.032851	 0.069727	 0.0	 410.0	 410.0	 410.0	 0.0	 0.0	 1	 -11.8401863096	 11.8401863096;
	474	 8045	 0.059942	 0.112802	 0.0	 248.0	 248.0	 248.0	 0.0	 0.0	 1	 -11.8401863096	 11.8401863096;
	7917	 7472	 0.00011	 0.00109	 0.0	 1086.0	 28833.0	 28833.0	 0.0	 0.0	 1	 -11.8401863096	 11.8401863096;
	7917	 8899	 0.00011	 0.00107	 0.0	 1185.0	 29367.0	 29367.0	 0.0	 0.0	 1	 -11.8401863096	 11.8401863096;
	6225	 7681	 0.000461	 0.00395	 0.0	 629.0	 7943.0	 7943.0	 0.0	 0.0	 1	 -11.8401863096	 11.8401863096;
	6225	 1508	 0.000599	 0.003789	 0.0	 591.0	 8235.0	 8235.0	 0.0	 0.0	 1	 -11.8401863096	 11.8401863096;
	7118	 6568	 0.00173	 0.01542	 0.0	 987.0	 2844.0	 2844.0	 0.0	 0.0	 1	 -11.8401863096	 11.8401863096;
	7118	 4346	 0.00166	 0.02083	 0.0	 1119.0	 2112.0	 2112.0	 0.0	 0.0	 1	 -11.8401863096	 11.8401863096;
	3469	 8850	 0.006314	 0.018488	 0.0	 1617.0	 1617.0	 1617.0	 0.0	 0.0	 1	 -11.8401863096	 11.8401863096;
	3469	 1997	 0.015727	 0.037669	 0.0	 774.0	 774.0	 774.0	 0.0	 0.0	 1	 -11.8401863096	 11.8401863096;
	7556	 7058	 0.00374	 0.02095	 0.0	 800.0	 1485.0	 1485.0	 0.0	 0.0	 1	 -11.8401863096	 11.8401863096;
	7556	 4324	 0.00511	 0.019461	 0.0	 800.0	 1570.0	 1570.0	 0.0	 0.0	 1	 -11.8401863096	 11.8401863096;
	1069	 2867	 0.011281	 0.050771	 0.0	 457.0	 608.0	 608.0	 0.0	 0.0	 1	 -11.8401863096	 11.8401863096;
	1069	 2588	 0.0115	 0.049719	 0.0	 438.0	 619.0	 619.0	 0.0	 0.0	 1	 -11.8401863096	 11.8401863096;
	3945	 2867	 0.011719	 0.048659	 0.0	 438.0	 632.0	 632.0	 0.0	 0.0	 1	 -11.8401863096	 11.8401863096;
	3945	 2588	 0.01193	 0.047599	 0.0	 438.0	 644.0	 644.0	 0.0	 0.0	 1	 -11.8401863096	 11.8401863096;
	132	 2962	 0.00064	 0.00715	 0.0	 1481.0	 4401.0	 4401.0	 0.0	 0.0	 1	 -11.8401863096	 11.8401863096;
	132	 4393	 0.00089	 0.00712	 0.0	 1283.0	 4403.0	 4403.0	 0.0	 0.0	 1	 -11.8401863096	 11.8401863096;
	5044	 693	 0.00048	 0.00555	 0.0	 987.0	 5671.0	 5671.0	 0.0	 0.0	 1	 -11.8401863096	 11.8401863096;
	5044	 7860	 0.00047	 0.00566	 0.0	 1086.0	 5562.0	 5562.0	 0.0	 0.0	 1	 -11.8401863096	 11.8401863096;
	6883	 693	 0.00046	 0.00524	 0.0	 1053.0	 6006.0	 6006.0	 0.0	 0.0	 1	 -11.8401863096	 11.8401863096;
	6883	 7860	 0.00052	 0.00514	 0.0	 1053.0	 6115.0	 6115.0	 0.0	 0.0	 1	 -11.8401863096	 11.8401863096;
	1456	 4503	 0.00438	 0.010686	 0.0	 2736.0	 2736.0	 2736.0	 0.0	 0.0	 1	 -11.8401863096	 11.8401863096;
	1456	 6658	 0.031347	 0.062653	 0.0	 451.0	 451.0	 451.0	 0.0	 0.0	 1	 -11.8401863096	 11.8401863096;
	6494	 4945	 0.00029	 0.00298	 0.0	 1613.0	 10550.0	 10550.0	 0.0	 0.0	 1	 -11.8401863096	 11.8401863096;
	6494	 6080	 0.0003	 0.00291	 0.0	 1514.0	 10798.0	 10798.0	 0.0	 0.0	 1	 -11.8401863096	 11.8401863096;
	1384	 9010	 0.00155	 0.01529	 0.0	 1185.0	 3137.0	 3137.0	 0.0	 0.0	 1	 -11.8401863096	 11.8401863096;
	1384	 3146	 0.00148	 0.0152	 0.0	 1283.0	 2889.0	 2889.0	 0.0	 0.0	 1	 -11.8401863096	 11.8401863096;
	8697	 8142	 0.000169	 0.00096	 0.0	 312.0	 32406.0	 32406.0	 0.0	 0.0	 1	 -11.8401863096	 11.8401863096;
	8697	 6195	 0.000182	 0.000942	 0.0	 312.0	 32924.0	 32924.0	 0.0	 0.0	 1	 -11.8401863096	 11.8401863096;
	5665	 424	 0.00016	 0.00184	 0.0	 17103.0	 17103.0	 17103.0	 0.0	 0.0	 1	 -11.8401863096	 11.8401863096;
	5665	 7235	 0.00022	 0.00287	 0.0	 10974.0	 10974.0	 10974.0	 0.0	 0.0	 1	 -11.8401863096	 11.8401863096;
	3852	 6497	 0.00015	 0.00187	 0.0	 16838.0	 16838.0	 16838.0	 0.0	 0.0	 1	 -11.8401863096	 11.8401863096;
	3852	 4779	 0.00022	 0.00266	 0.0	 11835.0	 11835.0	 11835.0	 0.0	 0.0	 1	 -11.8401863096	 11.8401863096;
	674	 8885	 0.00138	 0.0174	 0.0	 1316.0	 2528.0	 2528.0	 0.0	 0.0	 1	 -11.8401863096	 11.8401863096;
	674	 3115	 0.00272	 0.0288	 0.0	 1086.0	 1667.0	 1667.0	 0.0	 0.0	 1	 -11.8401863096	 11.8401863096;
	8126	 5177	 0.00065	 0.01024	 0.0	 1843.0	 3079.0	 3079.0	 0.0	 0.0	 1	 -11.8401863096	 11.8401863096;
	8126	 6007	 0.00073	 0.01004	 0.0	 1876.0	 3138.0	 3138.0	 0.0	 0.0	 1	 -11.8401863096	 11.8401863096;
	8935	 5177	 0.00075	 0.00983	 0.0	 1909.0	 3205.0	 3205.0	 0.0	 0.0	 1	 -11.8401863096	 11.8401863096;
	8935	 6007	 0.00076	 0.00963	 0.0	 1909.0	 3270.0	 3270.0	 0.0	 0.0	 1	 -11.8401863096	 11.8401863096;
	7146	 7388	 0.00042	 0.02666	 0.0	 1185.0	 1185.0	 1185.0	 0.0	 0.0	 1	 -11.8401863096	 11.8401863096;
	4003	 8855	 0.00029	 0.0026	 0.0	 12075.0	 12075.0	 12075.0	 0.0	 0.0	 1	 -11.8401863096	 11.8401863096;
	4003	 5781	 0.00022	 0.00303	 0.0	 1185.0	 10398.0	 10398.0	 0.0	 0.0	 1	 -11.8401863096	 11.8401863096;
	6996	 3761	 0.001	 0.006159	 0.0	 5063.0	 5063.0	 5063.0	 0.0	 0.0	 1	 -11.8401863096	 11.8401863096;
	6996	 9108	 0.00113	 0.00657	 0.0	 533.0	 4739.0	 4739.0	 0.0	 0.0	 1	 -11.8401863096	 11.8401863096;
	1212	 8258	 0.0013	 0.01277	 0.0	 1316.0	 3438.0	 3438.0	 0.0	 0.0	 1	 -11.8401863096	 11.8401863096;
	1212	 7330	 0.00163	 0.01808	 0.0	 1382.0	 2431.0	 2431.0	 0.0	 0.0	 1	 -11.8401863096	 11.8401863096;
	8644	 106	 0.00047	 0.00406	 0.0	 1316.0	 10795.0	 10795.0	 0.0	 0.0	 1	 -11.8401863096	 11.8401863096;
	8644	 5883	 0.00235	 0.02343	 0.0	 1316.0	 1874.0	 1874.0	 0.0	 0.0	 1	 -11.8401863096	 11.8401863096;
	97	 6413	 0.00036	 0.00445	 0.0	 1547.0	 7076.0	 7076.0	 0.0	 0.0	 1	 -11.8401863096	 11.8401863096;
	97	 1644	 0.00017	 0.0025	 0.0	 1909.0	 12606.0	 12606.0	 0.0	 0.0	 1	 -11.8401863096	 11.8401863096;
	4379	 6413	 0.00036	 0.00436	 0.0	 1580.0	 7221.0	 7221.0	 0.0	 0.0	 1	 -11.8401863096	 11.8401863096;
	4379	 3483	 0.00017	 0.00255	 0.0	 1810.0	 12360.0	 12360.0	 0.0	 0.0	 1	 -11.8401863096	 11.8401863096;
	1885	 3208	 0.00096	 0.00995	 0.0	 1349.0	 3160.0	 3160.0	 0.0	 0.0	 1	 -11.8401863096	 11.8401863096;
	1885	 6790	 0.00152	 0.01949	 0.0	 1382.0	 1616.0	 1616.0	 0.0	 0.0	 1	 -11.8401863096	 11.8401863096;
	5314	 3208	 0.00094	 0.01014	 0.0	 1251.0	 3102.0	 3102.0	 0.0	 0.0	 1	 -11.8401863096	 11.8401863096;
	5314	 6790	 0.00149	 0.01986	 0.0	 1415.0	 1587.0	 1587.0	 0.0	 0.0	 1	 -11.8401863096	 11.8401863096;
	2885	 3208	 0.00107	 0.01243	 0.0	 1152.0	 2532.0	 2532.0	 0.0	 0.0	 1	 -11.8401863096	 11.8401863096;
	2885	 2585	 0.00102	 0.01034	 0.0	 1218.0	 4639.0	 4639.0	 0.0	 0.0	 1	 -11.8401863096	 11.8401863096;
	3717	 4848	 0.0047	 0.02061	 0.0	 438.0	 1495.0	 1495.0	 0.0	 0.0	 1	 -11.8401863096	 11.8401863096;
	3717	 3688	 0.00739	 0.040531	 0.0	 400.0	 767.0	 767.0	 0.0	 0.0	 1	 -11.8401863096	 11.8401863096;
	6064	 8640	 0.00049	 0.00611	 0.0	 1942.0	 7198.0	 7198.0	 0.0	 0.0	 1	 -11.8401863096	 11.8401863096;
	6064	 7330	 0.00035	 0.00431	 0.0	 1547.0	 10203.0	 10203.0	 0.0	 0.0	 1	 -11.8401863096	 11.8401863096;
	5377	 1029	 0.00261	 0.01344	 0.0	 419.0	 2308.0	 2308.0	 0.0	 0.0	 1	 -11.8401863096	 11.8401863096;
	5377	 3525	 0.003521	 0.019591	 0.0	 419.0	 1587.0	 1587.0	 0.0	 0.0	 1	 -11.8401863096	 11.8401863096;
	6870	 3431	 0.0025	 0.01419	 0.0	 2193.0	 2193.0	 2193.0	 0.0	 0.0	 1	 -11.8401863096	 11.8401863096;
	6870	 5046	 0.00287	 0.0237	 0.0	 381.0	 1324.0	 1324.0	 0.0	 0.0	 1	 -11.8401863096	 11.8401863096;
	6693	 6743	 0.00088	 0.00956	 0.0	 1547.0	 3291.0	 3291.0	 0.0	 0.0	 1	 -11.8401863096	 11.8401863096;
	6693	 287	 0.00095	 0.00877	 0.0	 1382.0	 3581.0	 3581.0	 0.0	 0.0	 1	 -11.8401863096	 11.8401863096;
	2053	 752	 0.00332	 0.020651	 0.0	 457.0	 1511.0	 1511.0	 0.0	 0.0	 1	 -11.8401863096	 11.8401863096;
	2053	 3048	 0.003969	 0.018781	 0.0	 457.0	 1646.0	 1646.0	 0.0	 0.0	 1	 -11.8401863096	 11.8401863096;
	2893	 2738	 0.002849	 0.014909	 0.0	 438.0	 2082.0	 2082.0	 0.0	 0.0	 1	 -11.8401863096	 11.8401863096;
	2893	 1575	 0.00439	 0.02451	 0.0	 438.0	 1269.0	 1269.0	 0.0	 0.0	 1	 -11.8401863096	 11.8401863096;
	1524	 8687	 0.0002	 0.0018	 0.0	 17442.0	 17442.0	 17442.0	 0.0	 0.0	 1	 -11.8401863096	 11.8401863096;
	1524	 8393	 0.00025	 0.00261	 0.0	 12048.0	 12048.0	 12048.0	 0.0	 0.0	 1	 -11.8401863096	 11.8401863096;
	7369	 8687	 0.0002	 0.00176	 0.0	 17833.0	 17833.0	 17833.0	 0.0	 0.0	 1	 -11.8401863096	 11.8401863096;
	7369	 139	 0.00025	 0.00255	 0.0	 1909.0	 12329.0	 12329.0	 0.0	 0.0	 1	 -11.8401863096	 11.8401863096;
	1019	 6176	 0.012488	 0.047413	 0.0	 645.0	 645.0	 645.0	 0.0	 0.0	 1	 -11.8401863096	 11.8401863096;
	1019	 7177	 0.010479	 0.027711	 0.0	 1067.0	 1067.0	 1067.0	 0.0	 0.0	 1	 -11.8401863096	 11.8401863096;
	2607	 7458	 0.00044	 0.00428	 0.0	 1810.0	 7342.0	 7342.0	 0.0	 0.0	 1	 -11.8401863096	 11.8401863096;
	2607	 1337	 0.00036	 0.00475	 0.0	 6631.0	 6631.0	 6631.0	 0.0	 0.0	 1	 -11.8401863096	 11.8401863096;
	4735	 5239	 0.00058	 0.00534	 0.0	 1876.0	 5881.0	 5881.0	 0.0	 0.0	 1	 -11.8401863096	 11.8401863096;
	4735	 3145	 0.00054	 0.00589	 0.0	 1843.0	 5341.0	 5341.0	 0.0	 0.0	 1	 -11.8401863096	 11.8401863096;
	2941	 1429	 0.00206	 0.02057	 0.0	 1152.0	 1528.0	 1528.0	 0.0	 0.0	 1	 -11.8401863096	 11.8401863096;
	2941	 1542	 0.00077	 0.00872	 0.0	 954.0	 3609.0	 3609.0	 0.0	 0.0	 1	 -11.8401863096	 11.8401863096;
	3773	 9183	 0.00161	 0.01963	 0.0	 1349.0	 1604.0	 1604.0	 0.0	 0.0	 1	 -11.8401863096	 11.8401863096;
	3773	 1542	 0.00075	 0.00888	 0.0	 1382.0	 3545.0	 3545.0	 0.0	 0.0	 1	 -11.8401863096	 11.8401863096;
	1937	 7261	 0.00016	 0.00152	 0.0	 1645.0	 20667.0	 20667.0	 0.0	 0.0	 1	 -11.8401863096	 11.8401863096;
	1937	 5479	 0.00019	 0.00163	 0.0	 1711.0	 19249.0	 19249.0	 0.0	 0.0	 1	 -11.8401863096	 11.8401863096;
	5473	 7261	 0.00015	 0.0016	 0.0	 1547.0	 19656.0	 19656.0	 0.0	 0.0	 1	 -11.8401863096	 11.8401863096;
	5473	 5479	 0.00015	 0.00183	 0.0	 1645.0	 17204.0	 17204.0	 0.0	 0.0	 1	 -11.8401863096	 11.8401863096;
	3648	 3290	 0.00121	 0.01426	 0.0	 1415.0	 2208.0	 2208.0	 0.0	 0.0	 1	 -11.8401863096	 11.8401863096;
	3648	 5523	 0.00116	 0.01456	 0.0	 1448.0	 2163.0	 2163.0	 0.0	 0.0	 1	 -11.8401863096	 11.8401863096;
	451	 144	 0.00068	 0.00727	 0.0	 1777.0	 4327.0	 4327.0	 0.0	 0.0	 1	 -11.8401863096	 11.8401863096;
	451	 1601	 0.0007	 0.00734	 0.0	 1876.0	 4285.0	 4285.0	 0.0	 0.0	 1	 -11.8401863096	 11.8401863096;
	7898	 144	 0.00076	 0.00712	 0.0	 1580.0	 4412.0	 4412.0	 0.0	 0.0	 1	 -11.8401863096	 11.8401863096;
	7898	 1601	 0.0008	 0.00719	 0.0	 1909.0	 4367.0	 4367.0	 0.0	 0.0	 1	 -11.8401863096	 11.8401863096;
	2105	 1582	 0.0002	 0.0022	 0.0	 1218.0	 14299.0	 14299.0	 0.0	 0.0	 1	 -11.8401863096	 11.8401863096;
	2105	 7416	 0.0002	 0.0022	 0.0	 1251.0	 14299.0	 14299.0	 0.0	 0.0	 1	 -11.8401863096	 11.8401863096;
	270	 2046	 0.000205	 0.00215	 0.0	 1415.0	 14626.0	 14626.0	 0.0	 0.0	 1	 -11.8401863096	 11.8401863096;
	270	 7416	 0.000205	 0.00215	 0.0	 1448.0	 14626.0	 14626.0	 0.0	 0.0	 1	 -11.8401863096	 11.8401863096;
	5938	 8433	 0.00053	 0.00589	 0.0	 1316.0	 5342.0	 5342.0	 0.0	 0.0	 1	 -11.8401863096	 11.8401863096;
	5938	 816	 0.00046	 0.00675	 0.0	 1119.0	 4669.0	 4669.0	 0.0	 0.0	 1	 -11.8401863096	 11.8401863096;
	8539	 8433	 0.00054	 0.00577	 0.0	 1316.0	 5451.0	 5451.0	 0.0	 0.0	 1	 -11.8401863096	 11.8401863096;
	8539	 816	 0.00045	 0.00625	 0.0	 1086.0	 5041.0	 5041.0	 0.0	 0.0	 1	 -11.8401863096	 11.8401863096;
	1654	 1544	 0.00275	 0.02752	 0.0	 1382.0	 1596.0	 1596.0	 0.0	 0.0	 1	 -11.8401863096	 11.8401863096;
	1654	 7674	 0.00184	 0.01515	 0.0	 1316.0	 2891.0	 2891.0	 0.0	 0.0	 1	 -11.8401863096	 11.8401863096;
	2323	 4150	 0.00438	 0.02432	 0.0	 1279.0	 1279.0	 1279.0	 0.0	 0.0	 1	 -11.8401863096	 11.8401863096;
	2323	 599	 0.0043	 0.01949	 0.0	 1583.0	 1583.0	 1583.0	 0.0	 0.0	 1	 -11.8401863096	 11.8401863096;
	8376	 6999	 0.00033	 0.00269	 0.0	 1218.0	 16279.0	 16279.0	 0.0	 0.0	 1	 -11.8401863096	 11.8401863096;
...